T44/data_conversion/HR/HR_Tx_03_2020/Location_3.m
function mpc = Location_3
%LOCATION_3
%   PSS(R)E 33 RAW created by rawd33  THU, DEC 03 2020  10:16
%   CREATED BY NETVISION RAW CONVERTER FROM FILES: NDC_2020-09-2
%   , BEGIN BUS DATA
%
%   Converted by MATPOWER 7.0 using PSSE2MPC on 03-Dec-2020
%   from 'Location 3.raw' using PSS/E rev 33 format.
%
%   WARNINGS:
%       Conversion explicitly using PSS/E revision 33
%       Skipped 3 lines of zone data.
%       Skipped 22 lines of owner data.
%
%   See CASEFORMAT for details on the MATPOWER case file format.

%% MATPOWER Case Format : Version 2
mpc.version = '2';

%%-----  Power Flow Data  -----%%
%% system MVA base
mpc.baseMVA = 100;

%% bus data
%	bus_i	type	Pd	Qd	Gs	Bs	area	Vm	Va	baseKV	zone	Vmax	Vmin
mpc.bus = [
	1	3	-165.88	117.337	28.191	98.634	8	1.05561	0	400	1	1.1	0.9;
	2	1	-190.756	39.712	0	13.671	8	1.09242	0.5484	220	1	1.1	0.9;
	3	1	-0.508	21.781	0.001	5.586	8	1.0984	0.1119	220	1	1.1	0.9;
	4	1	52.746	5.783	0	0.998	8	1.06547	-1.7476	110	1	1.1	0.9;
	5	1	197.68	-0.086	0	56.96	8	1.06967	-1.774	110	1	1.1	0.9;
	6	1	66.75	9.737	0	0	8	1.06573	-1.7706	110	1	1.1	0.9;
	7	1	21.682	2.921	0	0	8	1.067	-1.7359	110	1	1.1	0.9;
	8	1	49.589	5.763	0	0	8	1.06607	-1.4229	110	1	1.1	0.9;
	9	1	0.573	-1.645	0	0	8	1.06607	-1.603	110	1	1.1	0.9;
	10	2	33.015	5.768	0	0	8	1.06839	-1.5166	110	1	1.1	0.9;
];

%% generator data
%	bus	Pg	Qg	Qmax	Qmin	Vg	mBase	status	Pmax	Pmin	Pc1	Pc2	Qc1min	Qc1max	Qc2min	Qc2max	ramp_agc	ramp_10	ramp_30	ramp_q	apf
mpc.gen = [
	1	0	0.018	9999	-9999	1.05561	100	1	9999	-9999	0	0	0	0	0	0	0	0	0	0	0;
	10	54.12	7.074	79	-27	1.06839	86	1	72	30	0	0	0	0	0	0	0	0	0	0	0;
	10	31.882	4.168	50	-10	1.06839	83	1	78	16	0	0	0	0	0	0	0	0	0	0	0;
	10	11.875	1.552	19	-34.4	1.06839	47.6	1	40	12	0	0	0	0	0	0	0	0	0	0	0;
];

%% branch data
%	fbus	tbus	r	x	b	rateA	rateB	rateC	ratio	angle	status	angmin	angmax
mpc.branch = [
	1	2	0.0164516	0.142655	0	0	0	0	0	0	1	-360	360;
	1	5	0.0111916	0.0656468	0	0	0	0	0	0	1	-360	360;
	1	6	1.02041	7.67565	0	0	0	0	0	0	1	-360	360;
	1	8	0.0939376	0.655842	0	0	0	0	0	0	1	-360	360;
	2	3	0.00436364	0.0223636	0.03552	311	0	0	0	0	1	-360	360;
	2	5	0.0424081	0.198795	0	0	0	0	0	0	1	-360	360;
	2	8	1.30417	5.41264	0	0	0	0	0	0	1	-360	360;
	4	6	0.00338843	0.0114876	0.00111	123	0	0	0	0	1	-360	360;
	4	6	0.00338843	0.0118182	0.00112	123	0	0	0	0	1	-360	360;
	4	8	0.00300826	0.0218099	0.00396	300	0	0	0	0	1	-360	360;
	4	8	0.00300826	0.0218099	0.00396	300	0	0	0	0	1	-360	360;
	5	6	0.021124	0.0739339	0.00701	123	0	0	0	0	1	-360	360;
	5	6	0.021124	0.0739339	0.00701	123	0	0	0	0	1	-360	360;
	5	6	0.540312	1.52371	0	0	0	0	0	0	1	-360	360;
	5	8	0.138312	0.367043	0	0	0	0	0	0	1	-360	360;
	5	10	0.0137355	0.0686777	0.01213	230	0	0	0	0	1	-360	360;
	6	8	0.0277605	0.0944397	0	0	0	0	0	0	1	-360	360;
	6	9	0.00644628	0.0220248	0.00216	123	0	0	0	0	1	-360	360;
	6	10	0.00872727	0.0298182	0.00289	123	0	0	0	0	1	-360	360;
	6	10	0.00872727	0.0298182	0.00289	123	0	0	0	0	1	-360	360;
	7	10	0.00413223	0.0206612	0.00151	140	0	0	0	0	1	-360	360;
	8	9	0.00644628	0.0220248	0.00216	123	0	0	0	0	1	-360	360;
	1	3	0.00036456	0.0317479	0	400	0	0	0.947619048	0.46	1	-360	360;
	1	8	0.00052633	0.0407299	0	300	0	0	0.99	0	1	-360	360;
	1	8	0.00054233	0.0407964	0	300	0	0	0.99	0	1	-360	360;
	2	5	0.00154622	0.070383	0	150	0	0	1.02826087	0	1	-360	360;
	2	5	0.00164444	0.0699807	0	150	0	0	1.02826087	0	1	-360	360;
];

%% bus names
mpc.bus_name = {
	'BUS1        ';
	'BUS2        ';
	'BUS3        ';
	'BUS4        ';
	'BUS5        ';
	'BUS6        ';
	'BUS7        ';
	'BUS8        ';
	'BUS9        ';
	'BUS10       ';
};
